Circuit: * C:\Users\Aidan\OneDrive\Documents\College\sophmore yr\Circuits\Labs\Lab4.asc

Direct Newton iteration for .op point succeeded.

v(n001)*i(r4)=9900 FROM 100 TO 10000


Date: Sun Oct 15 21:57:56 2023
Total elapsed time: 1.344 seconds.

tnom = 27
temp = 27
method = trap
totiter = 3
traniter = 0
tranpoints = 0
accept = 0
rejected = 0
matrix size = 4
fillins = 0
solver = Normal
Avg thread counts: 16.0/0.0/16.0/16.0
Matrix Compiler1: 118 bytes object code size
Matrix Compiler2: 248 bytes object code size
